<?xml version="1.0" encoding="UTF-8"?>

<!-- generated on 2022-02-28 15:56:28 by Eclipse SUMO duarouter Version 1.11.0
<configuration xmlns:xsi="http://www.w3.org/2001/XMLSchema-instance" xsi:noNamespaceSchemaLocation="http://sumo.dlr.de/xsd/duarouterConfiguration.xsd">

    <input>
        <net-file value="C:\Users\DELL\Desktop\Tesi\PES-main\paper\tools\2022-02-28-15-55-20\osm.net.xml"/>
        <route-files value="C:\Users\DELL\Desktop\Tesi\PES-main\paper\tools\2022-02-28-15-55-20\osm.passenger.trips.xml"/>
    </input>

    <output>
        <output-file value="C:\Users\DELL\Desktop\Tesi\PES-main\paper\tools\2022-02-28-15-55-20\osm.passenger.trips.xml.tmp"/>
        <write-trips value="true"/>
    </output>

    <time>
        <begin value="0"/>
        <end value="3600"/>
    </time>

    <report>
        <no-warnings value="true"/>
        <ignore-errors value="true"/>
        <no-step-log value="true"/>
    </report>

</configuration>
-->

<routes xmlns:xsi="http://www.w3.org/2001/XMLSchema-instance" xsi:noNamespaceSchemaLocation="http://sumo.dlr.de/xsd/routes_file.xsd">
    <vType id="veh_passenger" vClass="passenger"/>
    <trip id="veh0" type="veh_passenger" depart="0.00" departLane="best" from="340498991#4" to="-16571799#0"/>
    <trip id="veh1" type="veh_passenger" depart="0.69" departLane="best" from="-531952567" to="-4612871#5"/>
    <trip id="veh2" type="veh_passenger" depart="1.38" departLane="best" from="438496649#1" to="380162920"/>
    <trip id="veh3" type="veh_passenger" depart="2.06" departLane="best" from="532727925#1" to="-24869012#1"/>
    <trip id="veh4" type="veh_passenger" depart="2.75" departLane="best" from="19047393" to="-169711650#1"/>
    <trip id="veh5" type="veh_passenger" depart="3.44" departLane="best" from="-4611710#1" to="25999940#2"/>
    <trip id="veh6" type="veh_passenger" depart="4.13" departLane="best" from="-169319618#3" to="-4588217#1"/>
    <trip id="veh7" type="veh_passenger" depart="4.82" departLane="best" from="35557161#5" to="294104504#1"/>
    <trip id="veh8" type="veh_passenger" depart="5.51" departLane="best" from="-4611718#0" to="312924130#1"/>
    <trip id="veh9" type="veh_passenger" depart="6.19" departLane="best" from="4612871#5" to="-116793954#2"/>
    <trip id="veh10" type="veh_passenger" depart="6.88" departLane="best" from="4612410#3" to="425993875"/>
    <trip id="veh12" type="veh_passenger" depart="8.26" departLane="best" from="8149653#2" to="146757631#6"/>
    <trip id="veh13" type="veh_passenger" depart="8.95" departLane="best" from="-25336128#9" to="-272870881#1"/>
    <trip id="veh14" type="veh_passenger" depart="9.64" departLane="best" from="4616239#2" to="32320374"/>
    <trip id="veh15" type="veh_passenger" depart="10.32" departLane="best" from="4612416#4" to="4395577#0"/>
    <trip id="veh16" type="veh_passenger" depart="11.01" departLane="best" from="288354369" to="840229278#1"/>
    <trip id="veh17" type="veh_passenger" depart="11.70" departLane="best" from="165465028#1" to="301167584#0"/>
    <trip id="veh18" type="veh_passenger" depart="12.39" departLane="best" from="4615058#1" to="335462891#0"/>
    <trip id="veh19" type="veh_passenger" depart="13.08" departLane="best" from="4773463#2" to="310177222#2"/>
    <trip id="veh20" type="veh_passenger" depart="13.77" departLane="best" from="42103711" to="-181472197#2"/>
    <trip id="veh21" type="veh_passenger" depart="14.45" departLane="best" from="-4612416#8" to="-73310502#2"/>
    <trip id="veh22" type="veh_passenger" depart="15.14" departLane="best" from="-24214232#2" to="-4615004#0"/>
    <trip id="veh23" type="veh_passenger" depart="15.83" departLane="best" from="-273390876#6" to="-66071373#3"/>
    <trip id="veh24" type="veh_passenger" depart="16.52" departLane="best" from="340498982#2" to="160971198#0"/>
    <trip id="veh25" type="veh_passenger" depart="17.21" departLane="best" from="159081773" to="-4606226#0"/>
    <trip id="veh26" type="veh_passenger" depart="17.90" departLane="best" from="-48377469#1" to="717741321#2"/>
    <trip id="veh27" type="veh_passenger" depart="18.58" departLane="best" from="35269774#2" to="328426227#0"/>
    <trip id="veh28" type="veh_passenger" depart="19.27" departLane="best" from="-436413565#5" to="4391590#3"/>
    <trip id="veh29" type="veh_passenger" depart="19.96" departLane="best" from="-42732333#1" to="169717723#3"/>
    <trip id="veh30" type="veh_passenger" depart="20.65" departLane="best" from="940056668#2" to="35630823#1"/>
    <trip id="veh31" type="veh_passenger" depart="21.34" departLane="best" from="297373654#0" to="40583888"/>
    <trip id="veh32" type="veh_passenger" depart="22.02" departLane="best" from="4615594#0" to="460217100#1"/>
    <trip id="veh33" type="veh_passenger" depart="22.71" departLane="best" from="-4612431#1" to="-171484594#0"/>
    <trip id="veh34" type="veh_passenger" depart="23.40" departLane="best" from="-85182068#1" to="-54117008"/>
    <trip id="veh35" type="veh_passenger" depart="24.09" departLane="best" departSpeed="max" from="-4597360" to="746642315#1"/>
    <trip id="veh36" type="veh_passenger" depart="24.78" departLane="best" from="48859724#0" to="1009714187"/>
    <trip id="veh37" type="veh_passenger" depart="25.47" departLane="best" from="365734762#5" to="176043809#0"/>
    <trip id="veh38" type="veh_passenger" depart="26.15" departLane="best" from="623593133#1" to="23813206#1"/>
    <trip id="veh39" type="veh_passenger" depart="26.84" departLane="best" from="-4782519#1" to="-4615603#0"/>
    <trip id="veh40" type="veh_passenger" depart="27.53" departLane="best" from="301241681#4" to="-513152006#0"/>
    <trip id="veh41" type="veh_passenger" depart="28.22" departLane="best" from="311357732#1" to="54781811#1"/>
    <trip id="veh42" type="veh_passenger" depart="28.91" departLane="best" from="174144168#0" to="-4612410#0"/>
    <trip id="veh43" type="veh_passenger" depart="29.60" departLane="best" from="981299589" to="268562215#0"/>
    <trip id="veh44" type="veh_passenger" depart="30.28" departLane="best" from="-25134073#2" to="-182620303"/>
    <trip id="veh45" type="veh_passenger" depart="30.97" departLane="best" from="-291670881#4" to="340498991#2"/>
    <trip id="veh46" type="veh_passenger" depart="31.66" departLane="best" from="4610355#1" to="19801548#2"/>
    <trip id="veh47" type="veh_passenger" depart="32.35" departLane="best" from="-22773266#3" to="171484594#1"/>
    <trip id="veh48" type="veh_passenger" depart="33.04" departLane="best" departSpeed="max" from="979884095#0" to="288403579#1"/>
    <trip id="veh49" type="veh_passenger" depart="33.73" departLane="best" from="840229278#1" to="4773465#1"/>
    <trip id="veh50" type="veh_passenger" depart="34.41" departLane="best" from="-147659848#1" to="4376921#5"/>
    <trip id="veh51" type="veh_passenger" depart="35.10" departLane="best" from="375991062#0" to="291670881#3"/>
    <trip id="veh52" type="veh_passenger" depart="35.79" departLane="best" from="-48377469#0" to="356359316#2"/>
    <trip id="veh53" type="veh_passenger" depart="36.48" departLane="best" from="-291691899#7" to="206170874#8"/>
    <trip id="veh54" type="veh_passenger" depart="37.17" departLane="best" from="23013165#2" to="7913573#10"/>
    <trip id="veh55" type="veh_passenger" depart="37.86" departLane="best" from="48859721#2" to="-5133264#3"/>
    <trip id="veh56" type="veh_passenger" depart="38.54" departLane="best" from="24968394#8" to="-4396528#3"/>
    <trip id="veh57" type="veh_passenger" depart="39.23" departLane="best" from="6183487#4" to="48303485#2"/>
    <trip id="veh58" type="veh_passenger" depart="39.92" departLane="best" departSpeed="max" from="-729397316#1" to="35557161#6"/>
    <trip id="veh60" type="veh_passenger" depart="41.30" departLane="best" from="443401746#1" to="291691899#9"/>
    <trip id="veh61" type="veh_passenger" depart="41.98" departLane="best" from="4597054" to="288749954#0"/>
    <trip id="veh62" type="veh_passenger" depart="42.67" departLane="best" from="-1006033769" to="112128419#2"/>
    <trip id="veh63" type="veh_passenger" depart="43.36" departLane="best" from="-15971189" to="701301673#5"/>
    <trip id="veh64" type="veh_passenger" depart="44.05" departLane="best" from="492340367#0" to="4615406#11"/>
    <trip id="veh65" type="veh_passenger" depart="44.74" departLane="best" from="-7917219#1" to="-19801644#3"/>
    <trip id="veh66" type="veh_passenger" depart="45.43" departLane="best" from="490365295#0" to="76212438#4"/>
    <trip id="veh67" type="veh_passenger" depart="46.11" departLane="best" from="-24684997#1" to="24913519#2"/>
    <trip id="veh68" type="veh_passenger" depart="46.80" departLane="best" departSpeed="max" from="-23386525#3" to="4581767#7"/>
    <trip id="veh69" type="veh_passenger" depart="47.49" departLane="best" from="453379904" to="-32911678#3"/>
    <trip id="veh70" type="veh_passenger" depart="48.18" departLane="best" from="24240246#1" to="299132392#1"/>
    <trip id="veh71" type="veh_passenger" depart="48.87" departLane="best" from="-4782519#2" to="48859715#1"/>
    <trip id="veh72" type="veh_passenger" depart="49.56" departLane="best" from="194421314#2" to="-4610472#0"/>
    <trip id="veh73" type="veh_passenger" depart="50.24" departLane="best" departSpeed="max" from="289295026#0" to="4395577#0"/>
    <trip id="veh74" type="veh_passenger" depart="50.93" departLane="best" from="-4588224#4" to="-988870538#0"/>
    <trip id="veh75" type="veh_passenger" depart="51.62" departLane="best" from="975447068#0" to="369401521#1"/>
    <trip id="veh76" type="veh_passenger" depart="52.31" departLane="best" from="206170867" to="281095736#1"/>
    <trip id="veh77" type="veh_passenger" depart="53.00" departLane="best" from="-312924130#2" to="-4612875#4"/>
    <trip id="veh78" type="veh_passenger" depart="53.69" departLane="best" from="11483256#1" to="312654706#2"/>
    <trip id="veh79" type="veh_passenger" depart="54.37" departLane="best" from="-4612874#1" to="-4612410#9"/>
    <trip id="veh80" type="veh_passenger" depart="55.06" departLane="best" from="-23707866#3" to="340606518#3"/>
    <trip id="veh81" type="veh_passenger" depart="55.75" departLane="best" from="-4612431#0" to="60333314#1"/>
    <trip id="veh82" type="veh_passenger" depart="56.44" departLane="best" from="47707170#2" to="-23735660#1"/>
    <trip id="veh83" type="veh_passenger" depart="57.13" departLane="best" from="-4615003#8" to="375312063#2"/>
    <trip id="veh84" type="veh_passenger" depart="57.82" departLane="best" from="-4606263#3" to="-339201210"/>
    <trip id="veh85" type="veh_passenger" depart="58.50" departLane="best" from="713576589#1" to="309602348#0"/>
    <trip id="veh86" type="veh_passenger" depart="59.19" departLane="best" from="24149429#5" to="4610362#2"/>
    <trip id="veh87" type="veh_passenger" depart="59.88" departLane="best" from="4612416#7" to="-4424773#0"/>
    <trip id="veh88" type="veh_passenger" depart="60.57" departLane="best" departSpeed="max" from="-26299675#1" to="206170868#1"/>
    <trip id="veh89" type="veh_passenger" depart="61.26" departLane="best" from="194421314#6" to="24214232#3"/>
    <trip id="veh90" type="veh_passenger" depart="61.94" departLane="best" from="437325046#0" to="376720437"/>
    <trip id="veh91" type="veh_passenger" depart="62.63" departLane="best" from="939461219#2" to="-273390876#2"/>
    <trip id="veh92" type="veh_passenger" depart="63.32" departLane="best" from="176031315#0" to="147646826#1"/>
    <trip id="veh93" type="veh_passenger" depart="64.01" departLane="best" from="4773463#2" to="-4615628#2"/>
    <trip id="veh94" type="veh_passenger" depart="64.70" departLane="best" from="-4410148#8" to="23386522#3"/>
    <trip id="veh95" type="veh_passenger" depart="65.39" departLane="best" from="19047101#1" to="-66071387#3"/>
    <trip id="veh96" type="veh_passenger" depart="66.07" departLane="best" from="-4615407#4" to="674246444"/>
    <trip id="veh97" type="veh_passenger" depart="66.76" departLane="best" from="206170874#5" to="47755711#0"/>
    <trip id="veh98" type="veh_passenger" depart="67.45" departLane="best" from="292429056#0" to="-185779387"/>
    <trip id="veh99" type="veh_passenger" depart="68.14" departLane="best" departSpeed="max" from="988870538#0" to="4615497#3"/>
    <trip id="veh100" type="veh_passenger" depart="68.83" departLane="best" from="831658811#1" to="68647306#6"/>
    <trip id="veh101" type="veh_passenger" depart="69.52" departLane="best" from="4616242#3" to="-431664590"/>
    <trip id="veh102" type="veh_passenger" depart="70.20" departLane="best" from="24540242#1" to="-4611696#4"/>
    <trip id="veh103" type="veh_passenger" depart="70.89" departLane="best" from="175299343#2" to="-199293591#2"/>
    <trip id="veh105" type="veh_passenger" depart="72.27" departLane="best" from="-4782519#4" to="4610356"/>
    <trip id="veh106" type="veh_passenger" depart="72.96" departLane="best" from="23121446#1" to="19801618#3"/>
    <trip id="veh107" type="veh_passenger" depart="73.65" departLane="best" from="8149653#3" to="974057300#0"/>
    <trip id="veh108" type="veh_passenger" depart="74.33" departLane="best" from="296599839#1" to="437325048#0"/>
    <trip id="veh109" type="veh_passenger" depart="75.02" departLane="best" from="-375991062#2" to="-8008608"/>
    <trip id="veh110" type="veh_passenger" depart="75.71" departLane="best" from="83146232#0" to="31145647#2"/>
    <trip id="veh111" type="veh_passenger" depart="76.40" departLane="best" from="289967595#0" to="4412687"/>
    <trip id="veh112" type="veh_passenger" depart="77.09" departLane="best" from="-19801644#3" to="312651884#2"/>
    <trip id="veh113" type="veh_passenger" depart="77.78" departLane="best" from="24997595#1" to="46886607"/>
    <trip id="veh114" type="veh_passenger" depart="78.46" departLane="best" departSpeed="max" from="-380162920" to="819027709#0"/>
    <trip id="veh115" type="veh_passenger" depart="79.15" departLane="best" departSpeed="max" from="-24214232#3" to="-4409873#4"/>
    <trip id="veh116" type="veh_passenger" depart="79.84" departLane="best" from="312924130#0" to="37933094#0"/>
    <trip id="veh117" type="veh_passenger" depart="80.53" departLane="best" from="-46138135#1" to="-315214529#4"/>
    <trip id="veh118" type="veh_passenger" depart="81.22" departLane="best" departSpeed="max" from="531952547" to="-4615603#0"/>
    <trip id="veh119" type="veh_passenger" depart="81.91" departLane="best" from="312654706#3" to="335477512#0"/>
    <trip id="veh120" type="veh_passenger" depart="82.59" departLane="best" from="189133035#0" to="312651884#1"/>
    <trip id="veh121" type="veh_passenger" depart="83.28" departLane="best" from="27779097#1" to="710761408#1"/>
    <trip id="veh122" type="veh_passenger" depart="83.97" departLane="best" from="-4597029#1" to="433867835#0"/>
    <trip id="veh123" type="veh_passenger" depart="84.66" departLane="best" from="-4615004#7" to="176043809#1"/>
    <trip id="veh124" type="veh_passenger" depart="85.35" departLane="best" from="374621841#1" to="-8149664#0"/>
    <trip id="veh125" type="veh_passenger" depart="86.03" departLane="best" from="-874528353#4" to="443435388#1"/>
    <trip id="veh126" type="veh_passenger" depart="86.72" departLane="best" from="-23735661#1" to="23809670#3"/>
    <trip id="veh127" type="veh_passenger" depart="87.41" departLane="best" from="98399537#0" to="975447067#0"/>
    <trip id="veh128" type="veh_passenger" depart="88.10" departLane="best" from="-23735661#5" to="-4611693#0"/>
    <trip id="veh129" type="veh_passenger" depart="88.79" departLane="best" from="-4782519#4" to="708296766#2"/>
    <trip id="veh130" type="veh_passenger" depart="89.48" departLane="best" from="498330836#1" to="490365295#1"/>
    <trip id="veh131" type="veh_passenger" depart="90.16" departLane="best" from="158023913#4" to="-41927001"/>
    <trip id="veh132" type="veh_passenger" depart="90.85" departLane="best" from="4615362#3" to="43027203#1"/>
    <trip id="veh133" type="veh_passenger" depart="91.54" departLane="best" from="321842355#0" to="940016786#5"/>
    <trip id="veh134" type="veh_passenger" depart="92.23" departLane="best" from="36259516#0" to="-119914238#6"/>
    <trip id="veh135" type="veh_passenger" depart="92.92" departLane="best" from="4613299#1" to="-8149654#2"/>
    <trip id="veh136" type="veh_passenger" depart="93.61" departLane="best" from="370361653#3" to="729397316#1"/>
    <trip id="veh137" type="veh_passenger" depart="94.29" departLane="best" from="-335462921#2" to="-310177222#3"/>
    <trip id="veh138" type="veh_passenger" depart="94.98" departLane="best" from="-286774655#2" to="301241681#4"/>
    <trip id="veh139" type="veh_passenger" depart="95.67" departLane="best" from="-511748316" to="326116286#0"/>
    <trip id="veh140" type="veh_passenger" depart="96.36" departLane="best" from="431664589#1" to="-4597231"/>
    <trip id="veh141" type="veh_passenger" depart="97.05" departLane="best" from="339201251#0" to="-520229610"/>
    <trip id="veh142" type="veh_passenger" depart="97.74" departLane="best" from="24684997#5" to="60333313"/>
    <trip id="veh143" type="veh_passenger" depart="98.42" departLane="best" from="4615621#5" to="-25359021#1"/>
    <trip id="veh144" type="veh_passenger" depart="99.11" departLane="best" from="194421314#6" to="-65040944#4"/>
    <trip id="veh145" type="veh_passenger" depart="99.80" departLane="best" from="-111833186#0" to="4597324#2"/>
    <trip id="veh146" type="veh_passenger" depart="100.49" departLane="best" from="340498982#9" to="-508517360"/>
    <trip id="veh147" type="veh_passenger" depart="101.18" departLane="best" from="4391590#1" to="301167584#0"/>
    <trip id="veh148" type="veh_passenger" depart="101.87" departLane="best" from="195407521" to="-131505631#0"/>
    <trip id="veh149" type="veh_passenger" depart="102.55" departLane="best" from="-23755950#0" to="506732314#1"/>
    <trip id="veh150" type="veh_passenger" depart="103.24" departLane="best" from="598692947#0" to="295042489#0"/>
    <trip id="veh151" type="veh_passenger" depart="103.93" departLane="best" from="4615403#2" to="312533962#2"/>
    <trip id="veh152" type="veh_passenger" depart="104.62" departLane="best" from="-371927739#1" to="-328426227#2"/>
    <trip id="veh153" type="veh_passenger" depart="105.31" departLane="best" from="-796244040#0" to="55495482#3"/>
    <trip id="veh154" type="veh_passenger" depart="105.99" departLane="best" from="4610610#2" to="4773465#1"/>
    <trip id="veh155" type="veh_passenger" depart="106.68" departLane="best" from="552963268#1" to="-4606231#0"/>
    <trip id="veh156" type="veh_passenger" depart="107.37" departLane="best" from="-4615407#2" to="-28251222#1"/>
    <trip id="veh157" type="veh_passenger" depart="108.06" departLane="best" from="4597206#0" to="511653644"/>
    <trip id="veh158" type="veh_passenger" depart="108.75" departLane="best" from="176112925#1" to="335846074#1"/>
    <trip id="veh159" type="veh_passenger" depart="109.44" departLane="best" from="-375958863" to="703086792"/>
    <trip id="veh160" type="veh_passenger" depart="110.12" departLane="best" from="4782519#0" to="881921235#2"/>
    <trip id="veh161" type="veh_passenger" depart="110.81" departLane="best" from="4612875#2" to="493103526#0"/>
    <trip id="veh162" type="veh_passenger" depart="111.50" departLane="best" from="-168942727#1" to="4397269#6"/>
    <trip id="veh163" type="veh_passenger" depart="112.19" departLane="best" from="108488061#2" to="707100249#4"/>
    <trip id="veh164" type="veh_passenger" depart="112.88" departLane="best" from="4611726#0" to="4782523#3"/>
    <trip id="veh165" type="veh_passenger" depart="113.57" departLane="best" from="4612875#2" to="-533509622#2"/>
    <trip id="veh166" type="veh_passenger" depart="114.25" departLane="best" from="4606213#6" to="-291696983#2"/>
    <trip id="veh167" type="veh_passenger" depart="114.94" departLane="best" from="4840859#4" to="4773029#0"/>
    <trip id="veh168" type="veh_passenger" depart="115.63" departLane="best" departSpeed="max" from="-4611784#2" to="4615006#2"/>
    <trip id="veh169" type="veh_passenger" depart="116.32" departLane="best" from="23707866#3" to="-903119451#0"/>
    <trip id="veh170" type="veh_passenger" depart="117.01" departLane="best" from="4610479#1" to="-4613298#1"/>
    <trip id="veh171" type="veh_passenger" depart="117.70" departLane="best" from="-168935757#3" to="-45339885#1"/>
    <trip id="veh172" type="veh_passenger" depart="118.38" departLane="best" from="1025851956" to="4782523#4"/>
    <trip id="veh173" type="veh_passenger" depart="119.07" departLane="best" from="82658674#2" to="-664588196"/>
    <trip id="veh175" type="veh_passenger" depart="120.45" departLane="best" from="932638438" to="291270698#2"/>
    <trip id="veh176" type="veh_passenger" depart="121.14" departLane="best" from="72984394#1" to="-310177222#2"/>
    <trip id="veh177" type="veh_passenger" depart="121.83" departLane="best" from="83517336#2" to="-4396528#2"/>
    <trip id="veh178" type="veh_passenger" depart="122.51" departLane="best" from="824274187#1" to="-531952567"/>
    <trip id="veh179" type="veh_passenger" depart="123.20" departLane="best" departSpeed="max" from="-29052147#6" to="206170874#7"/>
    <trip id="veh180" type="veh_passenger" depart="123.89" departLane="best" from="436413565#6" to="100405009#2"/>
    <trip id="veh181" type="veh_passenger" depart="124.58" departLane="best" from="31912630#0" to="273390876#10"/>
    <trip id="veh182" type="veh_passenger" depart="125.27" departLane="best" from="168943642#7" to="310176513#1"/>
    <trip id="veh183" type="veh_passenger" depart="125.95" departLane="best" from="-4615599#1" to="431664589#4"/>
    <trip id="veh184" type="veh_passenger" depart="126.64" departLane="best" from="-107747046#0" to="67718316#1"/>
    <trip id="veh185" type="veh_passenger" depart="127.33" departLane="best" from="288750965" to="437325056#0"/>
    <trip id="veh186" type="veh_passenger" depart="128.02" departLane="best" from="4395577#0" to="375991059#1"/>
    <trip id="veh187" type="veh_passenger" depart="128.71" departLane="best" from="154048682#0" to="-23707866#0"/>
    <trip id="veh188" type="veh_passenger" depart="129.40" departLane="best" from="370361657#0" to="119914238#9"/>
    <trip id="veh189" type="veh_passenger" depart="130.08" departLane="best" from="-840229275" to="461900067#1"/>
    <trip id="veh190" type="veh_passenger" depart="130.77" departLane="best" from="431664590" to="-82652816"/>
    <trip id="veh191" type="veh_passenger" depart="131.46" departLane="best" departSpeed="max" from="-803210484#1" to="188386313#2"/>
    <trip id="veh192" type="veh_passenger" depart="132.15" departLane="best" from="176031304#6" to="-79377387#2"/>
    <trip id="veh193" type="veh_passenger" depart="132.84" departLane="best" from="-326116285#1" to="195430959#1"/>
    <trip id="veh194" type="veh_passenger" depart="133.53" departLane="best" from="73310501#2" to="382412792"/>
    <trip id="veh195" type="veh_passenger" depart="134.21" departLane="best" from="593051115#0" to="331595238"/>
    <trip id="veh196" type="veh_passenger" depart="134.90" departLane="best" departSpeed="max" from="-738177360#1" to="297373653#1"/>
    <trip id="veh197" type="veh_passenger" depart="135.59" departLane="best" from="-1002399056#1" to="-717177006#0"/>
    <trip id="veh198" type="veh_passenger" depart="136.28" departLane="best" from="195430959#1" to="311690284"/>
    <trip id="veh199" type="veh_passenger" depart="136.97" departLane="best" from="206170874#2" to="-4611696#4"/>
    <trip id="veh200" type="veh_passenger" depart="137.66" departLane="best" from="24214089#2" to="58536064#0"/>
    <trip id="veh201" type="veh_passenger" depart="138.34" departLane="best" from="4610610#1" to="-4376904#0"/>
    <trip id="veh202" type="veh_passenger" depart="139.03" departLane="best" from="-24261688#0" to="279549312#5"/>
    <trip id="veh203" type="veh_passenger" depart="139.72" departLane="best" from="339201177#3" to="136571494#4"/>
    <trip id="veh204" type="veh_passenger" depart="140.41" departLane="best" from="4613300#9" to="443401746#0"/>
    <trip id="veh205" type="veh_passenger" depart="141.10" departLane="best" from="374734389#1" to="-4612875#3"/>
    <trip id="veh206" type="veh_passenger" depart="141.79" departLane="best" from="-4581767#3" to="-165465028#2"/>
    <trip id="veh208" type="veh_passenger" depart="143.16" departLane="best" from="4616518#3" to="-23735661#7"/>
    <trip id="veh209" type="veh_passenger" depart="143.85" departLane="best" from="187103792#1" to="340606517#3"/>
    <trip id="veh210" type="veh_passenger" depart="144.54" departLane="best" from="-448076850#2" to="42104389#1"/>
    <trip id="veh211" type="veh_passenger" depart="145.23" departLane="best" from="24914141#2" to="-4615497#6"/>
    <trip id="veh212" type="veh_passenger" depart="145.91" departLane="best" from="365734769#1" to="-112128825#0"/>
    <trip id="veh213" type="veh_passenger" depart="146.60" departLane="best" from="4402014#3" to="4597252#1"/>
    <trip id="veh214" type="veh_passenger" depart="147.29" departLane="best" departSpeed="max" from="-28402260#1" to="199847244#1"/>
    <trip id="veh215" type="veh_passenger" depart="147.98" departLane="best" from="-4383266#2" to="81112790#1"/>
    <trip id="veh217" type="veh_passenger" depart="149.36" departLane="best" from="-4615407#0" to="461900067#3"/>
    <trip id="veh218" type="veh_passenger" depart="150.04" departLane="best" from="233835385" to="4612422#0"/>
    <trip id="veh219" type="veh_passenger" depart="150.73" departLane="best" from="37289167#0" to="940016786#9"/>
    <trip id="veh220" type="veh_passenger" depart="151.42" departLane="best" from="312924130#4" to="76865763#1"/>
    <trip id="veh221" type="veh_passenger" depart="152.11" departLane="best" from="53256982#2" to="32938436#1"/>
    <trip id="veh222" type="veh_passenger" depart="152.80" departLane="best" from="431664589#8" to="25945760#1"/>
    <trip id="veh223" type="veh_passenger" depart="153.49" departLane="best" from="4615065#1" to="297373653#0"/>
    <trip id="veh224" type="veh_passenger" depart="154.17" departLane="best" from="542983663" to="4410148#0"/>
    <trip id="veh225" type="veh_passenger" depart="154.86" departLane="best" from="24214283" to="-492340367#0"/>
    <trip id="veh226" type="veh_passenger" depart="155.55" departLane="best" from="-4615405#11" to="35474555"/>
    <trip id="veh227" type="veh_passenger" depart="156.24" departLane="best" from="453379904" to="282627234#1"/>
    <trip id="veh228" type="veh_passenger" depart="156.93" departLane="best" from="335462891#0" to="-6228081"/>
    <trip id="veh229" type="veh_passenger" depart="157.62" departLane="best" from="-511653652#0" to="108488061#1"/>
    <trip id="veh230" type="veh_passenger" depart="158.30" departLane="best" from="289830064" to="-356359316#1"/>
    <trip id="veh231" type="veh_passenger" depart="158.99" departLane="best" from="-4612876#4" to="42091230#3"/>
    <trip id="veh232" type="veh_passenger" depart="159.68" departLane="best" from="424415178" to="-22954356#7"/>
    <trip id="veh233" type="veh_passenger" depart="160.37" departLane="best" departSpeed="max" from="181472197#0" to="292429056#0"/>
    <trip id="veh234" type="veh_passenger" depart="161.06" departLane="best" from="188046016#0" to="-4597354#10"/>
    <trip id="veh235" type="veh_passenger" depart="161.75" departLane="best" from="19001381#2" to="60333312#1"/>
    <trip id="veh236" type="veh_passenger" depart="162.43" departLane="best" from="310177222#4" to="42103709#1"/>
    <trip id="veh237" type="veh_passenger" depart="163.12" departLane="best" from="46886607" to="4592727#1"/>
    <trip id="veh238" type="veh_passenger" depart="163.81" departLane="best" from="166260138#1" to="-11483256#0"/>
    <trip id="veh239" type="veh_passenger" depart="164.50" departLane="best" from="147659855#1" to="448076850#2"/>
    <trip id="veh240" type="veh_passenger" depart="165.19" departLane="best" from="465376240#0" to="785563391#0"/>
    <trip id="veh242" type="veh_passenger" depart="166.56" departLane="best" from="-4611718#1" to="-4612410#1"/>
    <trip id="veh243" type="veh_passenger" depart="167.25" departLane="best" from="202156995#0" to="-169319618#4"/>
    <trip id="veh244" type="veh_passenger" depart="167.94" departLane="best" from="112128418#2" to="386460943"/>
    <trip id="veh245" type="veh_passenger" depart="168.63" departLane="best" from="176043807#10" to="-43114621#7"/>
    <trip id="veh246" type="veh_passenger" depart="169.32" departLane="best" from="23851917#2" to="-328426230#1"/>
    <trip id="veh247" type="veh_passenger" depart="170.00" departLane="best" from="329967773#0" to="-168940071#3"/>
    <trip id="veh248" type="veh_passenger" depart="170.69" departLane="best" from="172082587" to="30806886#0"/>
    <trip id="veh249" type="veh_passenger" depart="171.38" departLane="best" departSpeed="max" from="-169319618#6" to="360643817"/>
    <trip id="veh250" type="veh_passenger" depart="172.07" departLane="best" from="-339201251#0" to="23851930"/>
    <trip id="veh251" type="veh_passenger" depart="172.76" departLane="best" from="-189042514#0" to="169717723#1"/>
    <trip id="veh252" type="veh_passenger" depart="173.45" departLane="best" from="-4606218#2" to="11845184#2"/>
    <trip id="veh254" type="veh_passenger" depart="174.82" departLane="best" from="4403559#2" to="4615406#4"/>
    <trip id="veh255" type="veh_passenger" depart="175.51" departLane="best" from="-4615497#3" to="-24243107#0"/>
    <trip id="veh256" type="veh_passenger" depart="176.20" departLane="best" from="-159081779#1" to="291691899#9"/>
    <trip id="veh257" type="veh_passenger" depart="176.89" departLane="best" from="999448748" to="153698415#2"/>
    <trip id="veh258" type="veh_passenger" depart="177.58" departLane="best" from="35557161#7" to="4606263#4"/>
    <trip id="veh259" type="veh_passenger" depart="178.26" departLane="best" from="356359316#3" to="448715094"/>
    <trip id="veh260" type="veh_passenger" depart="178.95" departLane="best" from="780281639#0" to="-4588224#4"/>