<?xml version="1.0" encoding="UTF-8"?>

<!-- generated on 2021-12-16 11:35:26 by Eclipse SUMO duarouter Version 1.11.0
<configuration xmlns:xsi="http://www.w3.org/2001/XMLSchema-instance" xsi:noNamespaceSchemaLocation="http://sumo.dlr.de/xsd/duarouterConfiguration.xsd">

    <input>
        <net-file value="C:\Users\DELL\Desktop\Tesi\PES-main\paper\tools\2021-12-16-11-35-12\osm.net.xml"/>
        <route-files value="C:\Users\DELL\Desktop\Tesi\PES-main\paper\tools\2021-12-16-11-35-12\osm.passenger.trips.xml"/>
    </input>

    <output>
        <output-file value="C:\Users\DELL\Desktop\Tesi\PES-main\paper\tools\2021-12-16-11-35-12\osm.passenger.trips.xml.tmp"/>
        <write-trips value="true"/>
    </output>

    <time>
        <begin value="0"/>
        <end value="3600"/>
    </time>

    <report>
        <no-warnings value="true"/>
        <ignore-errors value="true"/>
        <no-step-log value="true"/>
    </report>

</configuration>
-->

<routes xmlns:xsi="http://www.w3.org/2001/XMLSchema-instance" xsi:noNamespaceSchemaLocation="http://sumo.dlr.de/xsd/routes_file.xsd">
    <vType id="veh_passenger" vClass="passenger"/>
    <trip id="1" type="veh_passenger" depart="0.00" departLane="best" from="46225230#1" to="556168190#2"/>
    <trip id="2" type="veh_passenger" depart="0.00" departLane="best" from="65057040#0" to="569443032#2"/>
    <trip id="3" type="veh_passenger" depart="0.00" departLane="best" from="46604404#1 " to="197979803#0"/>
    <!--<trip id="2" type="veh_passenger" depart="0.00" departLane="best" from="581959665#1" to="134621261#0" via="135953375#21"/>
    <trip id="3" type="veh_passenger" depart="0.00" departLane="best" from="581959665#1" to="134621261#0" via="135953375#21"/>
    <trip id="4" type="veh_passenger" depart="0.00" departLane="best" from="581959665#1" to="134621261#0" via="135953375#21"/>
    <trip id="5" type="veh_passenger" depart="0.00" departLane="best" from="581959665#1" to="134621261#0" via="135953375#21"/>
    <trip id="6" type="veh_passenger" depart="0.00" departLane="best" from="581959665#1" to="134621261#0" via="135953375#21"/>
    <trip id="7" type="veh_passenger" depart="0.00" departLane="best" from="581959665#1" to="134621261#0" via="135953375#21"/>
    <trip id="veh1" type="veh_passenger" depart="3.44" departLane="best" from="794821098#3" to="134621261#0"/>
    <trip id="veh3" type="veh_passenger" depart="10.33" departLane="best" from="198874544#0" to="378406887#0"/>
    <trip id="veh5" type="veh_passenger" depart="17.22" departLane="best" departSpeed="max" from="569443033#0" to="4306021#35"/>
    <trip id="veh6" type="veh_passenger" depart="20.66" departLane="best" departSpeed="max" from="198994310#0" to="485830402#0"/>
    <trip id="veh8" type="veh_passenger" depart="27.55" departLane="best" from="715211389#13" to="616097570#6"/>
    <trip id="veh11" type="veh_passenger" depart="37.89" departLane="best" from="715211389#5" to="658620806#1"/>
    <trip id="veh12" type="veh_passenger" depart="41.33" departLane="best" from="4306021#26" to="968469951#1"/>
    <trip id="veh13" type="veh_passenger" depart="44.77" departLane="best" from="217383025#1" to="4308541#6"/>
    <trip id="veh15" type="veh_passenger" depart="51.66" departLane="best" departSpeed="max" from="783061126#0" to="46604404#1"/>
    <trip id="veh16" type="veh_passenger" depart="55.11" departLane="best" from="616097570#6" to="-767384959#2"/>
    <trip id="veh17" type="veh_passenger" depart="58.55" departLane="best" from="199310502#4" to="207883950#1"/>
    <trip id="veh18" type="veh_passenger" depart="61.99" departLane="best" departSpeed="max" from="131724934#0" to="198994314#2"/>
    <trip id="veh19" type="veh_passenger" depart="65.44" departLane="best" from="135953375#21" to="207831778#3"/>
    <trip id="veh20" type="veh_passenger" depart="68.88" departLane="best" from="556168188#0" to="208793251#3"/>
    <trip id="veh21" type="veh_passenger" depart="72.33" departLane="best" from="215320282#1" to="198715024#1"/>
    <trip id="veh22" type="veh_passenger" depart="75.77" departLane="best" from="207831533#1" to="963120908#0"/>
    <trip id="veh23" type="veh_passenger" depart="79.21" departLane="best" from="569443032#2" to="5072825#7"/>
    <trip id="veh24" type="veh_passenger" depart="82.66" departLane="best" from="197979802#1" to="658620805#0"/>
    <trip id="veh26" type="veh_passenger" depart="89.55" departLane="best" from="984870585" to="569443032#1"/>
    <trip id="veh28" type="veh_passenger" depart="96.44" departLane="best" from="735338668#5" to="712157727#0"/>
    <trip id="veh29" type="veh_passenger" depart="99.88" departLane="best" from="199310502#6" to="-255866964#1"/>
    <trip id="veh30" type="veh_passenger" depart="103.32" departLane="best" from="208554600#3" to="207830040#5"/>
    <trip id="veh31" type="veh_passenger" depart="106.77" departLane="best" from="198737797#6" to="963120919#1"/>
    <trip id="veh35" type="veh_passenger" depart="120.54" departLane="best" from="207831528#4" to="206507202#4"/>
    <trip id="veh36" type="veh_passenger" depart="123.99" departLane="best" from="46225230#1" to="207778723#1"/>
    <trip id="veh37" type="veh_passenger" depart="127.43" departLane="best" from="4768714#4" to="848742948#1"/>
    <trip id="veh40" type="veh_passenger" depart="137.76" departLane="best" from="13858295#1" to="550361772#2"/>
    <trip id="veh41" type="veh_passenger" depart="141.21" departLane="best" from="715181642#5" to="25427595#0"/>
    <trip id="veh42" type="veh_passenger" depart="144.65" departLane="best" from="108715490#1" to="217383023"/>
    <trip id="veh45" type="veh_passenger" depart="154.99" departLane="best" from="-16863761#1" to="658620787#0"/>
    <trip id="veh46" type="veh_passenger" depart="158.43" departLane="best" from="581959663#0" to="4306021#11"/>
    <trip id="veh47" type="veh_passenger" depart="161.87" departLane="best" from="207831533#0" to="569443032#1"/>
    <trip id="veh48" type="veh_passenger" depart="165.32" departLane="best" from="13907174#3" to="28519847#0"/>
    <trip id="veh50" type="veh_passenger" depart="172.21" departLane="best" from="386416108#1" to="197979802#1"/>
    <trip id="veh51" type="veh_passenger" depart="175.65" departLane="best" from="958571813#0" to="787559040"/>
    <trip id="veh52" type="veh_passenger" depart="179.09" departLane="best" from="208498196#3" to="569443031#7"/>
    <trip id="veh55" type="veh_passenger" depart="189.43" departLane="best" from="711989785#1" to="386878913#3"/>
    <trip id="veh56" type="veh_passenger" depart="192.87" departLane="best" from="-12560268#0" to="208554600#3"/>
    <trip id="veh57" type="veh_passenger" depart="196.31" departLane="best" from="-208554968#1" to="963120895#1"/>
    <trip id="veh59" type="veh_passenger" depart="203.20" departLane="best" from="208506748#2" to="1007895021#2"/>
    <trip id="veh61" type="veh_passenger" depart="210.09" departLane="best" from="131724956" to="316166609#7"/>
    <trip id="veh63" type="veh_passenger" depart="216.98" departLane="best" departSpeed="max" from="71079797#0" to="156927092#0"/>
    <trip id="veh64" type="veh_passenger" depart="220.42" departLane="best" from="316166609#9" to="4308541#2"/>
    <trip id="veh66" type="veh_passenger" depart="227.31" departLane="best" from="27008379#1" to="198715270#1"/>
    <trip id="veh67" type="veh_passenger" depart="230.76" departLane="best" from="4306021#31" to="658620806#1"/>
    <trip id="veh68" type="veh_passenger" depart="234.20" departLane="best" from="198715270#4" to="208506442#11"/>
    <trip id="veh70" type="veh_passenger" depart="241.09" departLane="best" from="29021030#1" to="386419594#1"/>
    <trip id="veh71" type="veh_passenger" depart="244.53" departLane="best" from="14720224#2" to="198737801#2"/>
    <trip id="veh72" type="veh_passenger" depart="247.98" departLane="best" from="208643582#5" to="4768714#4"/>
    <trip id="veh73" type="veh_passenger" depart="251.42" departLane="best" from="12476959#1" to="556168188#2"/>
    <trip id="veh74" type="veh_passenger" depart="254.86" departLane="best" from="199310502#6" to="931222615#3"/>
    <trip id="veh75" type="veh_passenger" depart="258.31" departLane="best" departSpeed="max" from="783061126#0" to="131724932#4"/>
    <trip id="veh76" type="veh_passenger" depart="261.75" departLane="best" from="206506959#7" to="581959650#3"/>
    <trip id="veh77" type="veh_passenger" depart="265.20" departLane="best" from="198737801#4" to="16862739#1"/>
    <trip id="veh78" type="veh_passenger" depart="268.64" departLane="best" from="963120896#3" to="46305928#1"/>
    <trip id="veh79" type="veh_passenger" depart="272.09" departLane="best" from="316166609#13" to="715181642#4"/>
    <trip id="veh80" type="veh_passenger" depart="275.53" departLane="best" from="715211389#6" to="198005098#12"/>
    <trip id="veh81" type="veh_passenger" depart="278.97" departLane="best" departSpeed="max" from="134621885#0" to="279989324#0"/>
    <trip id="veh83" type="veh_passenger" depart="285.86" departLane="best" from="658620799#1" to="581959658#1"/>
    <trip id="veh85" type="veh_passenger" depart="292.75" departLane="best" from="235931746#2" to="208642571#2"/>
    <trip id="veh86" type="veh_passenger" depart="296.19" departLane="best" departSpeed="max" from="783061126#0" to="206507202#4"/>
    <trip id="veh87" type="veh_passenger" depart="299.64" departLane="best" from="198005100#4" to="295476230#1"/>
    <trip id="veh88" type="veh_passenger" depart="303.08" departLane="best" from="255866964#1" to="207831778#4"/>
    <trip id="veh91" type="veh_passenger" depart="313.41" departLane="best" from="4308557#1" to="-931222643"/>
    <trip id="veh93" type="veh_passenger" depart="320.30" departLane="best" from="767384958#1" to="191505563#2"/>
    <trip id="veh94" type="veh_passenger" depart="323.75" departLane="best" from="33803215#1" to="198715273#1"/>
    <trip id="veh95" type="veh_passenger" depart="327.19" departLane="best" from="22977507" to="1007895022#0"/>
    <trip id="veh97" type="veh_passenger" depart="334.08" departLane="best" from="296399431#4" to="25427595#0"/>
    <trip id="veh99" type="veh_passenger" depart="340.97" departLane="best" from="4308557#3" to="654245207"/>
    <trip id="veh100" type="veh_passenger" depart="344.41" departLane="best" from="968328215#1" to="46604404#5"/>
    <trip id="veh101" type="veh_passenger" depart="347.86" departLane="best" from="4306021#5" to="672401944#1"/>
    <trip id="veh102" type="veh_passenger" depart="351.30" departLane="best" from="1007895021#1" to="4742597"/>
    <trip id="veh103" type="veh_passenger" depart="354.74" departLane="best" from="386416108#3" to="783044491#2"/>
    <trip id="veh104" type="veh_passenger" depart="358.19" departLane="best" from="191505321#1" to="968093374#9"/>
    <trip id="veh105" type="veh_passenger" depart="361.63" departLane="best" departSpeed="max" from="131724934#0" to="198005097#2"/>
    <trip id="veh106" type="veh_passenger" depart="365.08" departLane="best" from="5035772#7" to="581959663#0"/>
    <trip id="veh107" type="veh_passenger" depart="368.52" departLane="best" from="199649971#0" to="13911660#0"/>
    <trip id="veh108" type="veh_passenger" depart="371.96" departLane="best" from="794821098#1" to="206507202#1"/>
    <trip id="veh109" type="veh_passenger" depart="375.41" departLane="best" from="5035772#6" to="5118207#2"/>
    <trip id="veh111" type="veh_passenger" depart="382.30" departLane="best" from="387266159#2" to="963120899#0"/>
    <trip id="veh112" type="veh_passenger" depart="385.74" departLane="best" from="198715273#6" to="65057040#0"/>
    <trip id="veh114" type="veh_passenger" depart="392.63" departLane="best" from="581959642#1" to="208033309#4"/>
    <trip id="veh115" type="veh_passenger" depart="396.07" departLane="best" from="208554600#4" to="672401944#1"/>
    <trip id="veh116" type="veh_passenger" depart="399.52" departLane="best" from="12560268#1" to="296399431#2"/>
    <trip id="veh117" type="veh_passenger" depart="402.96" departLane="best" from="131724914#1" to="198715270#4"/>
    <trip id="veh118" type="veh_passenger" depart="406.41" departLane="best" from="207831528#6" to="963120897#2"/>
    <trip id="veh120" type="veh_passenger" depart="413.29" departLane="best" from="734406096#11" to="62106231#3"/>
    <trip id="veh123" type="veh_passenger" depart="423.63" departLane="best" from="715611130#1" to="208033309#4"/>
    <trip id="veh124" type="veh_passenger" depart="427.07" departLane="best" departSpeed="max" from="569718745#0" to="963120916"/>
    <trip id="veh125" type="veh_passenger" depart="430.51" departLane="best" departSpeed="max" from="172405421#0" to="13858295#1"/>
    <trip id="veh126" type="veh_passenger" depart="433.96" departLane="best" from="135953376#0" to="4308541#9"/>
    <trip id="veh127" type="veh_passenger" depart="437.40" departLane="best" from="207831778#5" to="507137553#1"/>
    <trip id="veh128" type="veh_passenger" depart="440.85" departLane="best" from="65057040#0" to="198033680"/>
    <trip id="veh129" type="veh_passenger" depart="444.29" departLane="best" from="550361772#5" to="207799527#1"/>
    <trip id="veh130" type="veh_passenger" depart="447.74" departLane="best" from="33803215#8" to="931222615#3"/>
    <trip id="veh131" type="veh_passenger" depart="451.18" departLane="best" from="746789182#0" to="134621272#1"/>
    <trip id="veh133" type="veh_passenger" depart="458.07" departLane="best" from="-13907174#1" to="711989785#1"/>
    <trip id="veh134" type="veh_passenger" depart="461.51" departLane="best" from="664287432#3" to="4308541#6"/>
    <trip id="veh135" type="veh_passenger" depart="464.96" departLane="best" from="279989318#0" to="-14716364#1"/>
    <trip id="veh136" type="veh_passenger" depart="468.40" departLane="best" from="131724930" to="790271208"/>
    <trip id="veh137" type="veh_passenger" depart="471.84" departLane="best" from="878771427#0" to="4306021#4"/>
    <trip id="veh139" type="veh_passenger" depart="478.73" departLane="best" from="187918254#4" to="156927092#0"/>
    <trip id="veh140" type="veh_passenger" depart="482.18" departLane="best" from="208506752#2" to="848742950#0"/>
    <trip id="veh142" type="veh_passenger" depart="489.06" departLane="best" from="8038155#3" to="198715024#1"/>
    <trip id="veh144" type="veh_passenger" depart="495.95" departLane="best" from="711989785#2" to="792868476#0"/>
    <trip id="veh146" type="veh_passenger" depart="502.84" departLane="best" from="190727195#1" to="963120895#1"/>
    <trip id="veh148" type="veh_passenger" depart="509.73" departLane="best" from="715211394#19" to="790271208"/>
    <trip id="veh149" type="veh_passenger" depart="513.17" departLane="best" from="-208643582#7" to="664287431"/>
    <trip id="veh150" type="veh_passenger" depart="516.62" departLane="best" from="208642573#1" to="963120896#2"/>
    <trip id="veh151" type="veh_passenger" depart="520.06" departLane="best" from="715211379#4" to="787559039#0"/>
    <trip id="veh152" type="veh_passenger" depart="523.51" departLane="best" from="715211394#19" to="207830036#2"/>
    <trip id="veh153" type="veh_passenger" depart="526.95" departLane="best" from="712187000" to="135953375#24"/>
    <trip id="veh156" type="veh_passenger" depart="537.28" departLane="best" from="315229024#7" to="208489244#6"/>
    <trip id="veh157" type="veh_passenger" depart="540.73" departLane="best" from="715201470#13" to="198737806#1"/>
    <trip id="veh158" type="veh_passenger" depart="544.17" departLane="best" from="-208643582#5" to="198005098#3"/>
    <trip id="veh159" type="veh_passenger" depart="547.61" departLane="best" from="208641736#5" to="787559039#0"/>
    <trip id="veh160" type="veh_passenger" depart="551.06" departLane="best" from="968328214#4" to="207831779#0"/>
    <trip id="veh163" type="veh_passenger" depart="561.39" departLane="best" from="963120899#0" to="13858295#0"/>
    <trip id="veh164" type="veh_passenger" depart="564.84" departLane="best" from="968328215#2" to="197979802#1"/>
    <trip id="veh165" type="veh_passenger" depart="568.28" departLane="best" from="968093374#9" to="207830034#2"/>
    <trip id="veh166" type="veh_passenger" depart="571.72" departLane="best" from="135953468#0" to="279989327#7"/>
    <trip id="veh167" type="veh_passenger" depart="575.17" departLane="best" from="658620799#1" to="208506442#5"/>
    <trip id="veh168" type="veh_passenger" depart="578.61" departLane="best" from="5072825#4" to="378406888#0"/>
    <trip id="veh169" type="veh_passenger" depart="582.06" departLane="best" from="218671037#3" to="46604404#0"/>
    <trip id="veh170" type="veh_passenger" depart="585.50" departLane="best" from="-131724956" to="963120893#2"/>
    <trip id="veh171" type="veh_passenger" depart="588.94" departLane="best" from="4306021#30" to="658620780#1"/>
    <trip id="veh172" type="veh_passenger" depart="592.39" departLane="best" from="210177006#0" to="131724930"/>
    <trip id="veh173" type="veh_passenger" depart="595.83" departLane="best" from="208554600#1" to="783044491#1"/>
    <trip id="veh174" type="veh_passenger" depart="599.28" departLane="best" from="65057040#1" to="208033309#4"/>
    <trip id="veh175" type="veh_passenger" depart="602.72" departLane="best" from="208506752#3" to="22820239#3"/>
    <trip id="veh177" type="veh_passenger" depart="609.61" departLane="best" from="848742950#0" to="510732895#3"/>
    <trip id="veh178" type="veh_passenger" depart="613.05" departLane="best" from="208498201#3" to="4306021#8"/>
    <trip id="veh179" type="veh_passenger" depart="616.50" departLane="best" from="-11565283#1" to="207831943#2"/>
    <trip id="veh180" type="veh_passenger" depart="619.94" departLane="best" from="279989324#0" to="46604404#5"/>
    <trip id="veh181" type="veh_passenger" depart="623.39" departLane="best" from="569455487#1" to="309519056#1"/>
    <trip id="veh182" type="veh_passenger" depart="626.83" departLane="best" from="295476229#2" to="198715273#1"/>
    <trip id="veh183" type="veh_passenger" depart="630.27" departLane="best" from="316166609#4" to="878771432#0"/>
    <trip id="veh184" type="veh_passenger" depart="633.72" departLane="best" from="715201470#14" to="191523280#6"/>
    <trip id="veh186" type="veh_passenger" depart="640.61" departLane="best" from="550361772#2" to="208641735#1"/>
    <trip id="veh187" type="veh_passenger" depart="644.05" departLane="best" from="715611130#2" to="672401944#1"/>
    <trip id="veh188" type="veh_passenger" depart="647.49" departLane="best" from="581959643#2" to="198737801#2"/>
    <trip id="veh189" type="veh_passenger" depart="650.94" departLane="best" from="207298902#3" to="315396033#3"/>
    <trip id="veh190" type="veh_passenger" depart="654.38" departLane="best" from="767384959#1" to="131724933#1"/>
    <trip id="veh191" type="veh_passenger" depart="657.83" departLane="best" from="25425328#2" to="556168188#0"/>
    <trip id="veh192" type="veh_passenger" depart="661.27" departLane="best" from="198005395#2" to="616097570#13"/>
    <trip id="veh193" type="veh_passenger" depart="664.71" departLane="best" from="378406887#2" to="206506959#11"/>
    <trip id="veh194" type="veh_passenger" depart="668.16" departLane="best" from="569455487#4" to="-13911660#0"/>
    <trip id="veh196" type="veh_passenger" depart="675.05" departLane="best" from="135953376#0" to="27008379#1"/>
    <trip id="veh197" type="veh_passenger" depart="678.49" departLane="best" from="198005096#6" to="968093374#3"/>
    <trip id="veh198" type="veh_passenger" depart="681.94" departLane="best" from="386419596#7" to="-931222643"/>
    <trip id="veh199" type="veh_passenger" depart="685.38" departLane="best" from="207460362#1" to="783044491#1"/>
    <trip id="veh200" type="veh_passenger" depart="688.82" departLane="best" from="314805372#1" to="715211394#12"/>
    <trip id="veh202" type="veh_passenger" depart="695.71" departLane="best" from="5035772#7" to="968051650#0"/>
    <trip id="veh203" type="veh_passenger" depart="699.16" departLane="best" from="794821098#2" to="5072826#6"/>
    <trip id="veh204" type="veh_passenger" depart="702.60" departLane="best" from="65057040#1" to="378406887#0"/>
    <trip id="veh205" type="veh_passenger" depart="706.04" departLane="best" from="734406094#13" to="4306021#8"/>
    <trip id="veh207" type="veh_passenger" depart="712.93" departLane="best" from="316166609#8" to="207516091#3"/>
    <trip id="veh208" type="veh_passenger" depart="716.38" departLane="best" from="207298910#1" to="569443031#2"/>
    <trip id="veh209" type="veh_passenger" depart="719.82" departLane="best" departSpeed="max" from="71079797#0" to="386419596#17"/>
    <trip id="veh210" type="veh_passenger" depart="723.27" departLane="best" from="5118210#7" to="207831533#4"/>
    <trip id="veh211" type="veh_passenger" depart="726.71" departLane="best" departSpeed="max" from="131724934#0" to="207831942#1"/>
    <trip id="veh212" type="veh_passenger" depart="730.15" departLane="best" from="207831778#4" to="208506752#5"/>
    <trip id="veh213" type="veh_passenger" depart="733.60" departLane="best" from="199429372#3" to="61511890#1"/>
    <trip id="veh214" type="veh_passenger" depart="737.04" departLane="best" from="616097571#2" to="11562935#2"/>
    <trip id="veh215" type="veh_passenger" depart="740.49" departLane="best" departSpeed="max" from="24531077" to="4306021#3"/>
    <trip id="veh216" type="veh_passenger" depart="743.93" departLane="best" from="25425692#3" to="198715024#1"/>
    <trip id="veh217" type="veh_passenger" depart="747.37" departLane="best" departSpeed="max" from="25428380#0" to="931222615#1"/>
    <trip id="veh218" type="veh_passenger" depart="750.82" departLane="best" from="4768714#3" to="616097570#1"/>
    <trip id="veh219" type="veh_passenger" depart="754.26" departLane="best" departSpeed="max" from="783061126#0" to="711989781#5"/>
    <trip id="veh220" type="veh_passenger" depart="757.71" departLane="best" from="217383025#4" to="-13911660#0"/>
    <trip id="veh221" type="veh_passenger" depart="761.15" departLane="best" from="208678438#0" to="69976421#0"/>
    <trip id="veh223" type="veh_passenger" depart="768.04" departLane="best" departSpeed="max" from="25428380#0" to="672401689#1"/>
    <trip id="veh224" type="veh_passenger" depart="771.48" departLane="best" from="4308541#2" to="505256329#1"/>
    <trip id="veh227" type="veh_passenger" depart="781.82" departLane="best" from="208642577#5" to="581959665#2"/>
    <trip id="veh228" type="veh_passenger" depart="785.26" departLane="best" from="316160691#3" to="156927092#0"/>
    <trip id="veh232" type="veh_passenger" depart="799.04" departLane="best" from="172405421#4" to="30179566#1"/>
    <trip id="veh234" type="veh_passenger" depart="805.92" departLane="best" from="207516091#3" to="131724961#4"/>
    <trip id="veh236" type="veh_passenger" depart="812.81" departLane="best" departSpeed="max" from="569443033#0" to="69976421#1"/>
    <trip id="veh237" type="veh_passenger" depart="816.26" departLane="best" from="968051639#2" to="198005100#6"/>
    <trip id="veh240" type="veh_passenger" depart="826.59" departLane="best" from="46296013#2" to="198715273#8"/>
    <trip id="veh241" type="veh_passenger" depart="830.03" departLane="best" from="61511850#2" to="711989781#6"/>
    <trip id="veh242" type="veh_passenger" depart="833.48" departLane="best" from="665181106#3" to="135953468#0"/>
    <trip id="veh243" type="veh_passenger" depart="836.92" departLane="best" from="715611140#2" to="968328214#3"/>
    <trip id="veh245" type="veh_passenger" depart="843.81" departLane="best" from="208506752#6" to="581959665#1"/>
    <trip id="veh247" type="veh_passenger" depart="850.70" departLane="best" from="622561171#1" to="131724935#0"/>
    <trip id="veh248" type="veh_passenger" depart="854.14" departLane="best" from="581959669#2" to="550361772#2"/>
    <trip id="veh249" type="veh_passenger" depart="857.59" departLane="best" from="135953375#23" to="711989785#2"/>
    <trip id="veh250" type="veh_passenger" depart="861.03" departLane="best" from="767384959#1" to="505256328#2"/>
    <trip id="veh252" type="veh_passenger" depart="867.92" departLane="best" from="711993455#0" to="208643582#7"/>
    <trip id="veh253" type="veh_passenger" depart="871.36" departLane="best" from="279989318#0" to="208793255#4"/>
    <trip id="veh254" type="veh_passenger" depart="874.81" departLane="best" from="386419594#0" to="208642574#2"/>
    <trip id="veh255" type="veh_passenger" depart="878.25" departLane="best" from="767384959#1" to="734406094#12"/>
    <trip id="veh256" type="veh_passenger" depart="881.69" departLane="best" from="135953375#6" to="968093378#0"/>
    <trip id="veh257" type="veh_passenger" depart="885.14" departLane="best" from="556168188#0" to="734406096#14"/>
    <trip id="veh258" type="veh_passenger" depart="888.58" departLane="best" from="616097571#4" to="286827105#1"/>
    <trip id="veh259" type="veh_passenger" depart="892.03" departLane="best" from="663070500" to="968328214#5"/>
    <trip id="veh260" type="veh_passenger" depart="895.47" departLane="best" from="207831778#0" to="715211394#6"/>
    <trip id="veh261" type="veh_passenger" depart="898.92" departLane="best" from="4306021#3" to="316166609#11"/>
    <trip id="veh263" type="veh_passenger" depart="905.80" departLane="best" from="207831636#0" to="783044491#2"/>
    <trip id="veh264" type="veh_passenger" depart="909.25" departLane="best" from="734406094#13" to="134621261#0"/>
    <trip id="veh265" type="veh_passenger" depart="912.69" departLane="best" from="790262283#3" to="206506959#11"/>
    <trip id="veh266" type="veh_passenger" depart="916.14" departLane="best" from="315396033#1" to="5072826#0"/>
    <trip id="veh268" type="veh_passenger" depart="923.02" departLane="best" from="778460621#0" to="197979803#0"/>
    <trip id="veh269" type="veh_passenger" depart="926.47" departLane="best" from="208643587#3" to="790262283#3"/>
    <trip id="veh270" type="veh_passenger" depart="929.91" departLane="best" from="61511897#2" to="207831636#2"/>
    <trip id="veh271" type="veh_passenger" depart="933.36" departLane="best" from="-16862739#0" to="968051639#2"/>
    <trip id="veh272" type="veh_passenger" depart="936.80" departLane="best" from="131724956" to="658620781"/>
    <trip id="veh273" type="veh_passenger" depart="940.24" departLane="best" from="33803215#8" to="70811762#3"/>
    <trip id="veh276" type="veh_passenger" depart="950.58" departLane="best" departSpeed="max" from="134621885#0" to="198737797#2"/>
    <trip id="veh277" type="veh_passenger" depart="954.02" departLane="best" from="581959669#3" to="208489244#9"/>
    <trip id="veh278" type="veh_passenger" depart="957.47" departLane="best" from="4742597" to="315229025#2"/>
    <trip id="veh279" type="veh_passenger" depart="960.91" departLane="best" departSpeed="max" from="412569392#0" to="27008379#1"/>
    <trip id="veh280" type="veh_passenger" depart="964.35" departLane="best" departSpeed="max" from="665181106#0" to="208555093#3"/>
    <trip id="veh281" type="veh_passenger" depart="967.80" departLane="best" from="616097570#13" to="207831526#3"/>
    <trip id="veh283" type="veh_passenger" depart="974.69" departLane="best" from="198005100#8" to="13911660#0"/>
    <trip id="veh285" type="veh_passenger" depart="981.57" departLane="best" from="198005098#3" to="198715273#7"/>
    <trip id="veh286" type="veh_passenger" depart="985.02" departLane="best" from="323916051#5" to="658620790#1"/>
    <trip id="veh288" type="veh_passenger" depart="991.91" departLane="best" from="207883950#1" to="135952945#1"/>
    <trip id="veh289" type="veh_passenger" depart="995.35" departLane="best" from="198005097#5" to="-197845905#2"/>
    <trip id="veh290" type="veh_passenger" depart="998.79" departLane="best" from="4306021#17" to="207831533#2"/>
    <trip id="veh291" type="veh_passenger" depart="0.00" departLane="best" from="968328219#1" to="4308541#9"/>
    <trip id="veh292" type="veh_passenger" depart="0.00" departLane="best" from="61511844#1" to="14720224#1"/>
    <trip id="veh296" type="veh_passenger" depart="0.00" departLane="best" from="198005098#2" to="-963120887#2"/>
    <trip id="veh297" type="veh_passenger" depart="0.00" departLane="best" from="963120908#0" to="316160748#0"/>
    <trip id="veh299" type="veh_passenger" depart="0.00" departLane="best" from="131724919#0" to="556168188#0"/>
    <trip id="veh300" type="veh_passenger" depart="0.00" departLane="best" from="-963120887#8" to="187918254#7"/>
    <trip id="veh301" type="veh_passenger" depart="0.00" departLane="best" from="46296013#1" to="208489244#3"/>
    <trip id="veh303" type="veh_passenger" depart="0.00" departLane="best" departSpeed="max" from="71079797#0" to="5072825#10"/>
    <trip id="veh304" type="veh_passenger" depart="0.00" departLane="best" from="715181642#2" to="198737801#4"/>
    <trip id="veh305" type="veh_passenger" depart="0.00" departLane="best" from="387266159#1" to="295476230#4"/>
    <trip id="veh307" type="veh_passenger" depart="0.00" departLane="best" from="984870585" to="208489244#6"/>
    <trip id="veh308" type="veh_passenger" depart="0.00" departLane="best" departSpeed="max" from="5118205#0" to="5072825#8"/>
    <trip id="veh309" type="veh_passenger" depart="0.00" departLane="best" from="664287432#2" to="968051639#2"/>
    <trip id="veh312" type="veh_passenger" depart="0.00" departLane="best" from="197979802#4" to="131724933#1"/>
    <trip id="veh313" type="veh_passenger" depart="0.00" departLane="best" from="-13858295#1" to="295476230#4"/>
    <trip id="veh314" type="veh_passenger" depart="0.00" departLane="best" from="5035772#6" to="207883950#3"/>
    <trip id="veh315" type="veh_passenger" depart="0.00" departLane="best" from="199429372#3" to="622561169"/>
    <trip id="veh316" type="veh_passenger" depart="0.00" departLane="best" from="616097570#13" to="296383691#15"/>
    <trip id="veh317" type="veh_passenger" depart="0.00" departLane="best" from="581959667#2" to="963120891#0"/>
    <trip id="veh319" type="veh_passenger" depart="0.00" departLane="best" departSpeed="max" from="569718745#0" to="963120897#2"/>