<?xml version="1.0" encoding="UTF-8"?>

<!-- generated on 2021-12-16 11:35:23 by Eclipse SUMO polyconvert Version 1.11.0
<configuration xmlns:xsi="http://www.w3.org/2001/XMLSchema-instance" xsi:noNamespaceSchemaLocation="http://sumo.dlr.de/xsd/polyconvertConfiguration.xsd">

    <input>
        <net-file value="osm.net.xml"/>
        <osm-files value="osm_bbox.osm.xml"/>
        <osm.keep-full-type value="true"/>
        <type-file value="C:\Program%20Files%20(x86)\Eclipse\Sumo\data\typemap\osmPolyconvert.typ.xml"/>
    </input>

    <output>
        <output-file value="osm.poly.xml"/>
    </output>

    <processing>
        <poi-layer-offset value="5"/>
    </processing>

    <report>
        <verbose value="true"/>
    </report>

</configuration>
-->

<additional xmlns:xsi="http://www.w3.org/2001/XMLSchema-instance" xsi:noNamespaceSchemaLocation="http://sumo.dlr.de/xsd/additional_file.xsd">
    <location netOffset="-319386.03,4188450.21" convBoundary="-3611.56,-4102.73,7144.31,5812.66" origBoundary="144.896945,-37.861839,145.028809,-37.773845" projParameter="+proj=utm +zone=55 +ellps=WGS84 +datum=WGS84 +units=m +no_defs"/>

    <poly id="1007895009" type="building.yes" color="255,230,230" fill="1" layer="-1.00" shape="1178.255953,1528.910985 1173.662367,1527.112157 1166.894245,1544.239015 1182.587507,1550.387755 1186.586970,1540.261279 1182.403750,1538.626837 1195.661264,1505.033127 1188.744854,1502.317676 1178.255953,1528.910985"/>
    <poly id="1011345474" type="amenity.shelter" color="237,199,199" fill="1" layer="-1.00" shape="521.903077,811.275862 520.486269,810.822951 523.122704,803.442390 524.694799,804.043028 521.903077,811.275862"/>
    <poly id="1011345474#1" type="building.yes" color="255,230,230" fill="1" layer="-1.00" shape="521.903077,811.275862 520.486269,810.822951 523.122704,803.442390 524.694799,804.043028 521.903077,811.275862"/>
    <poly id="1011345475" type="amenity.shelter" color="237,199,199" fill="1" layer="-1.00" shape="528.839968,793.320519 527.373750,792.711099 530.290107,785.014712 531.809383,785.614191 528.839968,793.320519"/>
    <poly id="1011345475#1" type="building.yes" color="255,230,230" fill="1" layer="-1.00" shape="528.839968,793.320519 527.373750,792.711099 530.290107,785.014712 531.809383,785.614191 528.839968,793.320519"/>
    <poly id="1011345476" type="amenity.shelter" color="237,199,199" fill="1" layer="-1.00" shape="506.043395,818.033682 507.431363,818.596984 510.362679,811.023051 509.000876,810.471425 506.043395,818.033682"/>
    <poly id="1011345476#1" type="building.yes" color="255,230,230" fill="1" layer="-1.00" shape="506.043395,818.033682 507.431363,818.596984 510.362679,811.023051 509.000876,810.471425 506.043395,818.033682"/>
    <poly id="1011345477" type="amenity.shelter" color="237,199,199" fill="1" layer="-1.00" shape="510.810952,805.837153 512.146832,806.366007 514.992108,799.101043 513.666247,798.516900 510.810952,805.837153"/>
    <poly id="1011345477#1" type="building.yes" color="255,230,230" fill="1" layer="-1.00" shape="510.810952,805.837153 512.146832,806.366007 514.992108,799.101043 513.666247,798.516900 510.810952,805.837153"/>
    <poly id="1011345478" type="amenity.shelter" color="237,199,199" fill="1" layer="-1.00" shape="517.174678,789.523455 518.614487,790.132298 521.543352,782.669329 520.076165,782.104294 517.174678,789.523455"/>
    <poly id="1011345478#1" type="building.yes" color="255,230,230" fill="1" layer="-1.00" shape="517.174678,789.523455 518.614487,790.132298 521.543352,782.669329 520.076165,782.104294 517.174678,789.523455"/>
    <poly id="10448101" type="amenity.parking" color="184,184,179" fill="1" layer="-1.00" shape="652.708781,1841.258550 722.587183,1833.017683 721.419294,1821.579356 716.566756,1821.950591 709.098042,1817.901534 703.888255,1818.498087 703.505582,1814.248779 698.063191,1814.607098 690.633093,1808.793662 685.425980,1809.268140 685.120199,1807.140981 679.306658,1807.957449 671.855941,1803.087208 666.757937,1803.808304 666.384088,1799.559185 660.696474,1800.256274 653.214692,1796.806382 647.049245,1797.604024 652.708781,1841.258550"/>
    <poly id="109230466" type="building.yes" color="255,230,230" fill="1" layer="-1.00" shape="1367.369602,1794.606835 1175.744881,1719.875395 1178.364390,1712.849545 1198.458333,1659.010814 1200.331876,1653.878208 1208.801704,1625.364602 1288.458770,1655.678317 1327.723797,1554.286118 1388.956992,1578.435298 1388.519040,1579.535941 1387.969884,1580.889503 1380.506072,1600.454865 1378.817577,1604.781101 1372.673734,1621.166784 1367.291849,1619.162156 1365.950603,1622.507891 1365.130898,1624.554973 1357.502780,1643.572745 1355.828149,1647.666140 1347.798602,1667.319063 1342.423635,1681.156954 1359.753593,1688.606626 1342.773117,1730.579042 1387.804776,1745.671075 1367.369602,1794.606835"/>
    <poly id="109230466#1" type="landuse.retail" color="194,194,130" fill="1" layer="-3.00" shape="1367.369602,1794.606835 1175.744881,1719.875395 1178.364390,1712.849545 1198.458333,1659.010814 1200.331876,1653.878208 1208.801704,1625.364602 1288.458770,1655.678317 1327.723797,1554.286118 1388.956992,1578.435298 1388.519040,1579.535941 1387.969884,1580.889503 1380.506072,1600.454865 1378.817577,1604.781101 1372.673734,1621.166784 1367.291849,1619.162156 1365.950603,1622.507891 1365.130898,1624.554973 1357.502780,1643.572745 1355.828149,1647.666140 1347.798602,1667.319063 1342.423635,1681.156954 1359.753593,1688.606626 1342.773117,1730.579042 1387.804776,1745.671075 1367.369602,1794.606835"/>
    <poly id="109230466#2" type="shop.mall" color="237,199,255" fill="1" layer="-1.00" shape="1367.369602,1794.606835 1175.744881,1719.875395 1178.364390,1712.849545 1198.458333,1659.010814 1200.331876,1653.878208 1208.801704,1625.364602 1288.458770,1655.678317 1327.723797,1554.286118 1388.956992,1578.435298 1388.519040,1579.535941 1387.969884,1580.889503 1380.506072,1600.454865 1378.817577,1604.781101 1372.673734,1621.166784 1367.291849,1619.162156 1365.950603,1622.507891 1365.130898,1624.554973 1357.502780,1643.572745 1355.828149,1647.666140 1347.798602,1667.319063 1342.423635,1681.156954 1359.753593,1688.606626 1342.773117,1730.579042 1387.804776,1745.671075 1367.369602,1794.606835"/>
    <poly id="109230467" type="landuse.retail" color="194,194,130" fill="1" layer="-3.00" shape="1619.594440,1777.574824 1423.728969,1701.757785 1461.250710,1604.712293 1658.123967,1681.072284 1619.594440,1777.574824"/>
    <poly id="109230467#1" type="shop.mall" color="237,199,255" fill="1" layer="-1.00" shape="1619.594440,1777.574824 1423.728969,1701.757785 1461.250710,1604.712293 1658.123967,1681.072284 1619.594440,1777.574824"/>
    <poly id="113434071" type="landuse.retail" color="194,194,130" fill="1" layer="-3.00" shape="1006.793271,2077.554086 857.800079,2008.686729 853.124277,1968.728662 836.205999,1969.835409 823.518912,1862.813134 653.845436,1883.504068 656.849282,1913.278564 684.904774,2191.418346 962.489897,2158.907078 1006.793271,2077.554086"/>
    <poly id="113434071#1" type="shop.mall" color="237,199,255" fill="1" layer="-1.00" shape="1006.793271,2077.554086 857.800079,2008.686729 853.124277,1968.728662 836.205999,1969.835409 823.518912,1862.813134 653.845436,1883.504068 656.849282,1913.278564 684.904774,2191.418346 962.489897,2158.907078 1006.793271,2077.554086"/>
    <poly id="114042520" type="building.yes" color="255,230,230" fill="1" layer="-1.00" shape="961.338539,1379.827669 979.403235,1386.661444 993.662590,1349.570596 999.199440,1334.792777 1005.855674,1337.313983 1007.247593,1333.669654 1019.663848,1301.112498 994.943121,1291.757593 961.338539,1379.827669"/>
    <poly id="114042520#1" type="man_made.telephone_exchange" color="255,230,230" fill="1" layer="-1.00" shape="961.338539,1379.827669 979.403235,1386.661444 993.662590,1349.570596 999.199440,1334.792777 1005.855674,1337.313983 1007.247593,1333.669654 1019.663848,1301.112498 994.943121,1291.757593 961.338539,1379.827669"/>
    <poly id="114114375" type="building.yes" color="255,230,230" fill="1" layer="-1.00" shape="1193.850287,1799.571242 1261.946251,1826.557652 1277.980109,1786.418745 1227.043628,1766.234768 1219.058992,1786.232724 1216.841937,1791.768610 1199.682462,1784.977376 1193.850287,1799.571242"/>
    <poly id="117894663" type="building.yes" color="255,230,230" fill="1" layer="-1.00" shape="1427.667424,1346.006236 1420.410078,1365.809262 1421.457527,1366.242859 1395.893277,1436.782159 1408.058055,1441.965417 1412.238844,1443.710711 1416.035671,1445.292209 1417.344572,1445.853623 1419.608931,1446.624591 1423.455823,1447.929630 1430.992358,1450.480764 1456.224266,1385.884736 1458.764999,1386.905957 1465.621454,1389.542163 1475.075145,1365.945703 1452.042121,1355.907358 1427.667424,1346.006236"/>
    <poly id="117894663#1" type="landuse.retail" color="194,194,130" fill="1" layer="-3.00" shape="1427.667424,1346.006236 1420.410078,1365.809262 1421.457527,1366.242859 1395.893277,1436.782159 1408.058055,1441.965417 1412.238844,1443.710711 1416.035671,1445.292209 1417.344572,1445.853623 1419.608931,1446.624591 1423.455823,1447.929630 1430.992358,1450.480764 1456.224266,1385.884736 1458.764999,1386.905957 1465.621454,1389.542163 1475.075145,1365.945703 1452.042121,1355.907358 1427.667424,1346.006236"/>
    <poly id="117894663#2" type="shop.department_store" color="237,199,255" fill="1" layer="-1.00" shape="1427.667424,1346.006236 1420.410078,1365.809262 1421.457527,1366.242859 1395.893277,1436.782159 1408.058055,1441.965417 1412.238844,1443.710711 1416.035671,1445.292209 1417.344572,1445.853623 1419.608931,1446.624591 1423.455823,1447.929630 1430.992358,1450.480764 1456.224266,1385.884736 1458.764999,1386.905957 1465.621454,1389.542163 1475.075145,1365.945703 1452.042121,1355.907358 1427.667424,1346.006236"/>
    <poly id="117894664" type="building.retail" color="255,230,230" fill="1" layer="-1.00" shape="1513.714856,1380.442724 1501.452654,1375.690471 1496.121254,1389.973468 1508.219939,1394.955305 1513.714856,1380.442724"/>
    <poly id="117894665" type="building.retail" color="255,230,230" fill="1" layer="-1.00" shape="1501.452654,1375.690471 1496.506963,1373.884152 1495.535699,1373.996217 1488.835062,1390.891629 1494.827975,1393.142635 1496.121254,1389.973468 1501.452654,1375.690471"/>
    <poly id="117894665#1" type="shop.jewelry" color="237,199,255" fill="1" layer="-1.00" shape="1501.452654,1375.690471 1496.506963,1373.884152 1495.535699,1373.996217 1488.835062,1390.891629 1494.827975,1393.142635 1496.121254,1389.973468 1501.452654,1375.690471"/>
    <poly id="117894666" type="building.yes" color="255,230,230" fill="1" layer="-1.00" shape="1460.092921,1429.443976 1463.637897,1420.351062 1467.600151,1410.701041 1472.425388,1398.227740 1510.628467,1412.559828 1498.059025,1444.148415 1479.069863,1436.873798 1460.092921,1429.443976"/>
    <poly id="117894667" type="building.retail" color="255,230,230" fill="1" layer="-1.00" shape="1495.535699,1373.996217 1475.075145,1365.945703 1465.621454,1389.542163 1463.577478,1394.826531 1472.425388,1398.227740 1476.883974,1386.412562 1488.835062,1390.891629 1495.535699,1373.996217"/>
    <poly id="117894667#1" type="shop.clothes" color="237,199,255" fill="1" layer="-1.00" shape="1495.535699,1373.996217 1475.075145,1365.945703 1465.621454,1389.542163 1463.577478,1394.826531 1472.425388,1398.227740 1476.883974,1386.412562 1488.835062,1390.891629 1495.535699,1373.996217"/>
    <poly id="117903559" type="building.yes" color="255,230,230" fill="1" layer="-1.00" shape="1489.276750,1299.055433 1486.351842,1297.881526 1483.076257,1296.633367 1469.682117,1330.502035 1505.663682,1344.508218 1518.515095,1311.693459 1523.816367,1313.751753 1545.803723,1255.734854 1511.829443,1242.993755 1489.276750,1299.055433"/>
    <poly id="117903559#1" type="landuse.retail" color="194,194,130" fill="1" layer="-3.00" shape="1489.276750,1299.055433 1486.351842,1297.881526 1483.076257,1296.633367 1469.682117,1330.502035 1505.663682,1344.508218 1518.515095,1311.693459 1523.816367,1313.751753 1545.803723,1255.734854 1511.829443,1242.993755 1489.276750,1299.055433"/>
    <poly id="117903560" type="building.retail" color="255,230,230" fill="1" layer="-1.00" shape="1560.529851,1282.822162 1562.665052,1276.984667 1543.876193,1269.425892 1541.554179,1275.348130 1560.529851,1282.822162"/>
    <poly id="117903563" type="building.retail" color="255,230,230" fill="1" layer="-1.00" shape="1562.665052,1276.984667 1567.179381,1265.836775 1548.399348,1258.278201 1543.876193,1269.425892 1562.665052,1276.984667"/>
    <poly id="117903565" type="building.yes" color="255,230,230" fill="1" layer="-1.00" shape="1383.338248,1295.958664 1393.914755,1267.324302 1386.055732,1264.222100 1374.918938,1292.699916 1383.338248,1295.958664"/>
    <poly id="117903568" type="building.retail" color="255,230,230" fill="1" layer="-1.00" shape="1551.133726,1307.430228 1555.909970,1294.367420 1537.169303,1287.020618 1532.516276,1300.086099 1551.133726,1307.430228"/>
    <poly id="117903570" type="building.yes" color="255,230,230" fill="1" layer="-1.00" shape="1438.540272,1327.614215 1434.646406,1322.000627 1433.601727,1323.865182 1433.262615,1326.089270 1434.001416,1327.348780 1435.161950,1328.251118 1436.654152,1328.483469 1438.540272,1327.614215"/>
    <poly id="117903570#1" type="tourism.information" color="207,245,201" fill="1" layer="-2.00" shape="1438.540272,1327.614215 1434.646406,1322.000627 1433.601727,1323.865182 1433.262615,1326.089270 1434.001416,1327.348780 1435.161950,1328.251118 1436.654152,1328.483469 1438.540272,1327.614215"/>
    <poly id="117903571" type="building.retail" color="255,230,230" fill="1" layer="-1.00" shape="1543.938573,1327.223598 1551.133726,1307.430228 1532.516276,1300.086099 1525.306238,1320.156678 1543.938573,1327.223598"/>
    <poly id="117903572" type="building.retail" color="255,230,230" fill="1" layer="-1.00" shape="1555.909970,1294.367420 1560.529851,1282.822162 1541.554179,1275.348130 1537.169303,1287.020618 1555.909970,1294.367420"/>
    <poly id="11914778" type="building.yes" color="255,230,230" fill="1" layer="-1.00" shape="1533.129167,613.703541 1554.687187,621.822338 1558.206472,619.956163 1558.597228,621.019353 1564.856786,618.280304 1568.056721,609.646122 1565.029557,603.474154 1564.356944,603.626032 1563.170900,601.068970 1567.941474,598.763767 1574.506215,601.016103 1575.644291,600.519101 1582.553401,603.134191 1583.743083,602.693822 1590.712364,605.376827 1592.808013,604.179053 1594.358497,600.515892 1599.316925,587.157288 1597.505106,583.409804 1577.857833,576.520632 1558.359267,569.679057 1556.781269,566.114286 1551.625052,564.292282 1546.737542,566.306279 1540.325902,584.518030 1529.677806,612.451554 1533.129167,613.703541"/>
    <poly id="11914778#1" type="tourism.hotel" color="207,245,201" fill="1" layer="-2.00" shape="1533.129167,613.703541 1554.687187,621.822338 1558.206472,619.956163 1558.597228,621.019353 1564.856786,618.280304 1568.056721,609.646122 1565.029557,603.474154 1564.356944,603.626032 1563.170900,601.068970 1567.941474,598.763767 1574.506215,601.016103 1575.644291,600.519101 1582.553401,603.134191 1583.743083,602.693822 1590.712364,605.376827 1592.808013,604.179053 1594.358497,600.515892 1599.316925,587.157288 1597.505106,583.409804 1577.857833,576.520632 1558.359267,569.679057 1556.781269,566.114286 1551.625052,564.292282 1546.737542,566.306279 1540.325902,584.518030 1529.677806,612.451554 1533.129167,613.703541"/>
    <poly id="123299575" type="building.yes" color="255,230,230" fill="1" layer="-1.00" shape="1730.224277,1434.514573 1747.921102,1441.283107 1757.235941,1417.150460 1739.539405,1410.370847 1730.224277,1434.514573"/>
    <poly id="12477419" type="building.yes" color="255,230,230" fill="1" layer="-1.00" shape="1347.455122,867.464936 1353.920391,870.248160 1361.092065,872.946864 1381.253901,880.902418 1398.997317,836.581903 1361.719804,821.536573 1357.409783,832.600003 1360.858314,833.985218 1347.455122,867.464936"/>
    <poly id="12558458" type="tourism.attraction" color="207,245,201" fill="0" layer="-2.00" shape="1545.355220,1002.557920 1546.830669,998.704398 1564.958428,951.261213"/>
    <poly id="13127644" type="amenity.place_of_worship" color="237,199,199" fill="1" layer="-1.00" shape="1695.607897,1052.157149 1696.288973,1052.427313 1714.417108,1059.571720 1719.822371,1044.701817 1724.786953,1046.441811 1730.080779,1031.025487 1725.786677,1029.233472 1739.869390,993.603143 1742.604899,994.573010 1747.816378,981.319748 1736.560969,976.867266 1722.363149,971.240558 1717.097126,984.570332 1720.355249,985.806922 1706.650481,1022.278086 1701.972922,1020.300085 1699.794101,1026.125558 1697.148568,1033.162079 1696.203931,1035.694952 1701.124006,1037.456197 1695.607897,1052.157149"/>
    <poly id="13127644#1" type="building.yes" color="255,230,230" fill="1" layer="-1.00" shape="1695.607897,1052.157149 1696.288973,1052.427313 1714.417108,1059.571720 1719.822371,1044.701817 1724.786953,1046.441811 1730.080779,1031.025487 1725.786677,1029.233472 1739.869390,993.603143 1742.604899,994.573010 1747.816378,981.319748 1736.560969,976.867266 1722.363149,971.240558 1717.097126,984.570332 1720.355249,985.806922 1706.650481,1022.278086 1701.972922,1020.300085 1699.794101,1026.125558 1697.148568,1033.162079 1696.203931,1035.694952 1701.124006,1037.456197 1695.607897,1052.157149"/>
    <poly id="131724920" type="building.yes" color="255,230,230" fill="1" layer="-1.00" shape="2252.828836,1422.231233 2243.118244,1418.390299 2240.277246,1425.522648 2236.697005,1424.101662 2223.381145,1458.561476 2236.819629,1463.515768 2252.828836,1422.231233"/>
    <poly id="13307317" type="building.yes" color="255,230,230" fill="1" layer="-1.00" shape="1416.259042,487.104182 1448.888688,499.161562 1468.129413,514.590658 1500.315323,478.311622 1512.885853,447.022841 1534.311897,454.306203 1537.008279,450.190634 1498.108746,426.806274 1494.631075,431.615328 1484.647810,423.382216 1486.223999,421.773484 1478.231811,414.716145 1416.259042,487.104182"/>
    <poly id="134620346" type="amenity.parking" color="184,184,179" fill="1" layer="-1.00" shape="819.966616,583.315721 820.688756,580.900189 819.382552,577.807485 789.862167,567.758433 787.207219,567.544929 786.074816,570.195726 819.966616,583.315721"/>
    <poly id="134620347" type="landuse.commercial" color="209,209,204" fill="1" layer="-3.00" shape="780.346703,559.901036 786.269931,562.484142 814.109570,572.873913 819.992733,574.068374 825.581579,574.223913 829.020901,572.800370 832.484424,569.867492 841.087040,560.674485 837.833306,557.639110 822.601342,546.603712 802.554292,534.263950 788.178958,527.954444 731.259277,505.926249 708.465352,503.218139 698.188512,502.793384 686.887980,502.868003 671.898926,504.083080 659.032461,505.289088 658.108437,506.867541 662.031570,508.285658 661.308602,510.334796 687.232214,520.938416 694.386630,524.403390 701.381697,528.308948 709.424260,532.237424 714.193965,534.007100 719.781388,536.238747 775.454708,558.084317 780.346703,559.901036"/>
    <poly id="134620348" type="amenity.parking" color="184,184,179" fill="1" layer="-1.00" shape="769.847996,563.978913 770.965712,561.194573 770.406104,558.595577 732.769608,542.751162 729.565760,544.279735 728.580857,547.433340 769.847996,563.978913"/>
    <poly id="13728111" type="building.yes" color="255,230,230" fill="1" layer="-1.00" shape="1510.484854,932.356100 1518.652173,935.442712 1522.617963,936.939040 1535.237651,903.819474 1540.076427,891.113301 1528.050221,886.477202 1516.914054,915.776723 1510.484854,932.356100"/>
    <poly id="13858289" type="landuse.construction" color="194,194,130" fill="1" layer="-3.00" shape="1643.428402,1150.349896 1672.627002,1161.965158 1707.394577,1071.053666 1679.513067,1060.444138 1643.428402,1150.349896"/>
    <poly id="13858298" type="building.yes" color="255,230,230" fill="1" layer="-1.00" shape="1778.962968,1089.607621 1786.227089,1092.119214 1803.177213,1048.147051 1795.757571,1045.498866 1778.962968,1089.607621"/>
    <poly id="13859957" type="building.yes" color="255,230,230" fill="1" layer="-1.00" shape="1522.372502,987.425045 1538.853057,944.853058 1559.622618,952.821391 1543.133115,995.404320 1522.372502,987.425045"/>
    <poly id="13907359" type="building.yes" color="255,230,230" fill="1" layer="-1.00" shape="944.106773,1259.905702 957.112131,1226.595469 973.565906,1232.972208 987.303731,1238.290406 974.298483,1271.600683 944.106773,1259.905702"/>
    <poly id="139193205" type="building.yes" color="255,230,230" fill="1" layer="-1.00" shape="1106.899426,892.169034 1113.557658,874.817793 1132.196974,881.908084 1135.961425,883.344699 1136.818036,881.220731 1151.996908,887.069730 1148.067516,898.030357 1142.299791,912.514565 1135.792798,910.030014 1128.342128,907.202899 1129.864442,903.228343 1129.119831,900.625342 1106.899426,892.169034"/>
    <poly id="140812396" type="building.yes" color="255,230,230" fill="1" layer="-1.00" shape="833.006353,813.399943 820.846925,782.659211 853.047884,770.041051 865.198605,800.781540 833.006353,813.399943"/>
    <poly id="140812591" type="building.yes" color="255,230,230" fill="1" layer="-1.00" shape="851.806772,787.732603 837.747465,757.283411 869.870431,742.587425 883.921263,773.025270 851.806772,787.732603"/>
    <poly id="140838470" type="building.yes" color="255,230,230" fill="1" layer="-1.00" shape="1289.639401,1255.425447 1326.554583,1240.321453 1310.688428,1204.160773 1273.023525,1220.935824 1289.639401,1255.425447"/>
    <poly id="141183684" type="amenity.public_building" color="237,199,199" fill="1" layer="-1.00" shape="2344.528413,1517.064200 2353.956504,1493.721660 2327.744014,1483.217257 2318.315857,1506.559769 2344.528413,1517.064200"/>
    <poly id="141183684#1" type="building.yes" color="255,230,230" fill="1" layer="-1.00" shape="2344.528413,1517.064200 2353.956504,1493.721660 2327.744014,1483.217257 2318.315857,1506.559769 2344.528413,1517.064200"/>
    <poly id="142437094" type="leisure.garden" color="207,245,201" fill="1" layer="-2.00" shape="1429.754490,1730.010124 1428.602557,1729.518745 1428.146259,1728.631755 1428.457333,1727.694874 1427.696489,1727.445156 1427.989230,1726.541181 1424.678987,1725.258949 1424.335842,1726.050807 1423.574998,1725.801089 1423.171678,1726.525024 1422.273559,1726.916223 1421.136091,1726.569484 1420.264295,1728.582130 1419.919699,1729.440567 1420.846944,1730.137986 1421.219557,1730.823320 1421.204181,1731.933172 1422.005658,1732.339202 1421.740537,1733.188269 1424.946106,1734.423815 1425.311552,1733.821175 1426.158982,1734.139390 1426.506238,1733.158890 1427.507826,1732.869862 1428.523977,1733.125142 1429.754490,1730.010124"/>
    <poly id="14251243" type="building.yes" color="255,230,230" fill="1" layer="-1.00" shape="1064.384957,749.557969 1074.994397,753.719756 1076.269165,754.224978 1077.074739,752.421856 1086.392784,756.033634 1100.791584,761.699182 1100.105537,763.271775 1112.412311,767.947956 1113.289836,765.269351 1113.874527,765.515258 1122.955816,742.055354 1122.370884,741.820544 1123.239277,739.963281 1109.475342,734.666895 1111.031396,730.759691 1106.412117,728.949133 1105.976586,729.938796 1100.988324,728.086872 1095.021438,725.880518 1095.340276,724.588556 1090.307037,722.780051 1088.990261,726.215095 1075.574596,721.103885 1074.642957,723.437146 1073.581716,723.236339 1064.869206,746.337887 1065.511636,746.762688 1064.384957,749.557969"/>
    <poly id="14251243#1" type="tourism.museum" color="207,245,201" fill="1" layer="-2.00" shape="1064.384957,749.557969 1074.994397,753.719756 1076.269165,754.224978 1077.074739,752.421856 1086.392784,756.033634 1100.791584,761.699182 1100.105537,763.271775 1112.412311,767.947956 1113.289836,765.269351 1113.874527,765.515258 1122.955816,742.055354 1122.370884,741.820544 1123.239277,739.963281 1109.475342,734.666895 1111.031396,730.759691 1106.412117,728.949133 1105.976586,729.938796 1100.988324,728.086872 1095.021438,725.880518 1095.340276,724.588556 1090.307037,722.780051 1088.990261,726.215095 1075.574596,721.103885 1074.642957,723.437146 1073.581716,723.236339 1064.869206,746.337887 1065.511636,746.762688 1064.384957,749.557969"/>
    <poly id="14664543" type="building.yes" color="255,230,230" fill="1" layer="-1.00" shape="688.280200,613.884700 712.159866,623.333289 722.890152,596.201799 709.616466,591.059768 699.051655,586.887362 688.280200,613.884700"/>
    <poly id="14664549" type="building.yes" color="255,230,230" fill="1" layer="-1.00" shape="565.845556,729.839605 602.827583,743.827492 612.918798,717.348245 575.936879,703.360399 565.845556,729.839605"/>
    <poly id="14664549#1" type="tourism.hotel" color="207,245,201" fill="1" layer="-2.00" shape="565.845556,729.839605 602.827583,743.827492 612.918798,717.348245 575.936879,703.360399 565.845556,729.839605"/>
    <poly id="14665796" type="building.tower" color="255,230,230" fill="1" layer="-1.00" shape="806.323219,824.184778 844.819336,839.448058 880.752901,749.564227 842.257161,734.301099 806.323219,824.184778"/>
    <poly id="14712656" type="building.yes" color="255,230,230" fill="1" layer="-1.00" shape="503.447435,885.876410 533.188826,896.330948 542.760397,872.282818 512.858985,862.302189 503.447435,885.876410"/>
    <poly id="14713522" type="building.hall" color="255,230,230" fill="1" layer="-1.00" shape="589.250215,966.512955 603.196697,971.925222 607.554742,960.729954 611.194867,951.350789 608.286584,950.232429 610.087825,945.597944 608.964846,942.986603 606.148297,942.103391 603.290445,943.106606 601.628777,947.399985 597.523977,945.822447 596.090956,948.522150 589.250215,966.512955"/>
    <poly id="14718907" type="building.yes" color="255,230,230" fill="1" layer="-1.00" shape="1139.930724,1016.199097 1136.542071,1014.892813 1135.065212,1018.801751 1133.305127,1023.581557 1159.618902,1033.759096 1173.865319,997.200605 1150.808974,988.293216 1139.930724,1016.199097"/>
    <poly id="154297116" type="leisure.park" color="207,245,201" fill="1" layer="-2.00" shape="1272.451364,555.575304 1343.227040,580.355353 1374.070281,591.152845 1404.336745,601.748912 1400.492666,614.876366 1339.108963,594.331655 1272.803167,572.147025 1262.131782,568.006337 1272.451364,555.575304"/>
    <poly id="154297117" type="leisure.park" color="207,245,201" fill="1" layer="-2.00" shape="1426.843722,615.617317 1430.250792,622.941118 1493.551525,642.017037 1497.435427,643.222953 1499.034548,635.308843 1437.466805,611.474718 1428.228876,611.462096 1426.843722,615.617317"/>
    <poly id="15477564" type="amenity.place_of_worship" color="237,199,199" fill="1" layer="-1.00" shape="1667.081196,591.330431 1669.797713,596.807280 1676.354746,599.414626 1677.707645,596.735217 1684.328175,593.593167 1685.454622,590.797810 1686.747242,591.292223 1709.674852,568.854760 1705.221842,558.999300 1695.981444,563.150124 1697.334634,566.121572 1693.897185,574.750626 1685.656754,578.678962 1684.552852,578.011026 1685.791931,574.896165 1679.759787,572.855344 1678.512629,575.936723 1677.339381,575.622536 1672.399326,577.624360 1670.773148,581.530128 1668.553750,580.726889 1665.774304,588.659736 1668.003714,589.407684 1667.081196,591.330431"/>
    <poly id="15477564#1" type="building.church" color="255,230,230" fill="1" layer="-1.00" shape="1667.081196,591.330431 1669.797713,596.807280 1676.354746,599.414626 1677.707645,596.735217 1684.328175,593.593167 1685.454622,590.797810 1686.747242,591.292223 1709.674852,568.854760 1705.221842,558.999300 1695.981444,563.150124 1697.334634,566.121572 1693.897185,574.750626 1685.656754,578.678962 1684.552852,578.011026 1685.791931,574.896165 1679.759787,572.855344 1678.512629,575.936723 1677.339381,575.622536 1672.399326,577.624360 1670.773148,581.530128 1668.553750,580.726889 1665.774304,588.659736 1668.003714,589.407684 1667.081196,591.330431"/>